Version 4
SHEET 1 2232 852
WIRE 864 -64 864 -96
WIRE 144 32 -272 32
WIRE 192 32 144 32
WIRE 352 32 320 32
WIRE 864 48 864 16
WIRE 144 64 -112 64
WIRE 192 64 144 64
WIRE 144 96 32 96
WIRE 192 96 144 96
WIRE 432 96 384 96
WIRE 496 128 400 128
WIRE -272 144 -272 112
WIRE 432 160 400 160
WIRE -112 176 -112 144
WIRE 32 208 32 176
WIRE 256 208 256 160
WIRE 288 208 256 208
WIRE 800 256 800 208
WIRE 256 272 256 208
WIRE 256 384 256 352
WIRE 800 384 800 336
WIRE 1024 496 1008 496
WIRE 1216 496 1152 496
WIRE 1024 528 1008 528
WIRE 1024 560 1008 560
WIRE 1328 592 1232 592
WIRE 1088 624 832 624
WIRE 1328 704 1328 672
FLAG 288 208 r
IOPIN 288 208 Out
FLAG 496 128 theta
IOPIN 496 128 Out
FLAG 432 96 arc
IOPIN 432 96 Out
FLAG 352 32 bubble_area
FLAG 432 160 x
IOPIN 432 160 Out
FLAG 1008 528 step
IOPIN 1008 528 In
FLAG 1008 560 alph
IOPIN 1008 560 In
FLAG 1008 496 beta
IOPIN 1008 496 In
FLAG 1328 704 0
FLAG 1216 496 min_area
FLAG 832 624 min_radius
FLAG 800 384 0
FLAG -272 144 0
FLAG -112 176 0
FLAG 32 208 0
FLAG 144 32 beta
FLAG 144 64 step
FLAG 144 96 alph
FLAG 800 208 error
FLAG 256 384 0
FLAG 864 -96 area
FLAG 864 48 0
SYMBOL bubble_volume_theta 1120 560 R0
SYMATTR InstName Xmin_area
SYMBOL bv 1328 576 R0
SYMATTR InstName Bpi
SYMATTR Value V=pi
SYMBOL bubble_volume_r 288 96 R0
SYMATTR InstName Xbubble_area
SYMBOL bi 800 336 R180
WINDOW 0 24 80 Left 2
WINDOW 3 -1137 12 Left 2
SYMATTR InstName Br
SYMATTR Value I=if(v(r) > v(min_radius), v(bubble_area) - max(v(area), v(min_area)), v(r)+v(min_area)-max(v(area), v(min_area))- v(min_radius))
SYMATTR SpiceLine rpar=1
SYMBOL voltage -112 48 R0
SYMATTR InstName VDplus
SYMATTR Value 1.405
SYMBOL voltage 32 80 R0
SYMATTR InstName Valph
SYMATTR Value 0.20944
SYMBOL voltage -272 16 R0
SYMATTR InstName VBeta
SYMATTR Value 0.016
SYMBOL voltage 256 256 R0
SYMATTR InstName Vr
SYMATTR Value 15.4
SYMBOL voltage 864 -80 R0
SYMATTR InstName Varea
SYMATTR Value 13.9
TEXT -272 -88 Left 2 !.param epsilon=0.00001
TEXT -128 480 Left 2 !.dc Vr -2 2 0.01
