Version 4
SHEET 1 880 680
WIRE 224 0 208 0
WIRE 48 80 -368 80
WIRE 80 80 48 80
WIRE 208 80 208 0
WIRE 48 112 -208 112
WIRE 80 112 48 112
WIRE 48 144 -64 144
WIRE 80 144 48 144
WIRE 352 144 272 144
WIRE 448 176 288 176
WIRE 480 176 448 176
WIRE -368 192 -368 160
WIRE 352 208 288 208
WIRE -208 224 -208 192
WIRE 448 240 448 176
WIRE -64 256 -64 224
WIRE 144 288 144 208
WIRE 448 368 448 320
FLAG 448 368 0
FLAG 144 288 R
FLAG -368 192 0
FLAG -208 224 0
FLAG -64 256 0
FLAG 480 176 theta
FLAG 352 208 x
FLAG 352 144 arc
FLAG 48 80 beta
FLAG 48 112 step
FLAG 48 144 alph
FLAG 224 0 area
SYMBOL voltage -208 96 R0
SYMATTR InstName VDplus
SYMATTR Value 1.405
SYMBOL voltage -64 128 R0
SYMATTR InstName Valph
SYMATTR Value 0.20944
SYMBOL voltage -368 64 R0
SYMATTR InstName VBeta
SYMATTR Value 0.016
SYMBOL voltage 448 224 R0
SYMATTR InstName Vtheta
SYMATTR Value 0.5
SYMBOL bubble_volume_theta 176 144 R0
SYMATTR InstName X1
TEXT -400 352 Left 2 !.dc Vtheta 3.1415 3.1415 0.01
