Version 4
SHEET 1 880 680
WIRE 320 0 208 0
WIRE 320 16 320 0
WIRE 48 80 -368 80
WIRE 80 80 48 80
WIRE 208 80 208 0
WIRE 48 112 -208 112
WIRE 80 112 48 112
WIRE 320 112 320 96
WIRE 48 144 -64 144
WIRE 80 144 48 144
WIRE 384 144 272 144
WIRE 384 176 288 176
WIRE -368 192 -368 160
WIRE 384 208 288 208
WIRE -208 224 -208 192
WIRE -64 256 -64 224
WIRE 144 288 144 208
FLAG 144 288 R
FLAG -368 192 0
FLAG -208 224 0
FLAG -64 256 0
FLAG 384 176 theta
FLAG 384 208 x
FLAG 384 144 arc
FLAG 48 80 beta
FLAG 48 112 step
FLAG 48 144 alph
FLAG 320 112 0
FLAG 320 0 Varea
SYMBOL voltage -208 96 R0
SYMATTR InstName VDplus
SYMATTR Value 1.405
SYMBOL voltage -64 128 R0
SYMATTR InstName Valph
SYMATTR Value 0.20944
SYMBOL voltage -368 64 R0
WINDOW 3 -249 96 Left 2
SYMATTR InstName VBeta
SYMATTR Value PULSE(0.2 -0.3 1m 8m 1m 1)
SYMBOL voltage 320 0 R0
WINDOW 123 0 0 Left 0
WINDOW 39 0 0 Left 0
SYMATTR InstName Varea
SYMATTR Value 20
SYMBOL bubble_volume 176 144 R0
WINDOW 39 -58 -99 Left 0
SYMATTR InstName X1
SYMATTR SpiceLine r_max=100000
TEXT -400 352 Left 2 !.tran 0.01
