Version 4
SHEET 1 880 680
WIRE 320 0 208 0
WIRE 80 80 -368 80
WIRE 208 80 208 0
WIRE 320 96 320 80
WIRE 80 112 -208 112
WIRE 80 144 -64 144
WIRE 384 144 272 144
WIRE 384 176 288 176
WIRE -368 192 -368 160
WIRE 384 208 288 208
WIRE -208 224 -208 192
WIRE -64 256 -64 224
WIRE 144 288 144 208
FLAG 320 96 0
FLAG 144 288 R
FLAG -368 192 0
FLAG -208 224 0
FLAG -64 256 0
FLAG 384 176 theta
FLAG 384 208 x
FLAG 384 144 arc
SYMBOL voltage -208 96 R0
SYMATTR InstName VDplus
SYMATTR Value 1.405
SYMBOL voltage -64 128 R0
SYMATTR InstName Valph
SYMATTR Value 0.20944
SYMBOL voltage -368 64 R0
SYMATTR InstName VBeta
SYMATTR Value 0.0160524
SYMBOL voltage 320 -16 R0
SYMATTR InstName Varea
SYMATTR Value 13.933391
SYMBOL bubble_volume 176 144 R0
SYMATTR InstName X1
TEXT -402 354 Left 2 !.dc Varea -2 20 0.1
