Version 4
SHEET 1 880 680
WIRE 128 64 -80 64
WIRE 320 64 256 64
WIRE 400 96 320 96
WIRE 400 128 320 128
WIRE 128 160 64 160
WIRE -80 176 -80 144
WIRE 64 272 64 240
FLAG 64 272 0
FLAG 320 64 area
FLAG -80 176 0
FLAG 400 96 r
FLAG 400 128 theta
SYMBOL chord 224 112 R0
SYMATTR InstName X1
SYMBOL voltage 64 144 R0
WINDOW 3 24 84 Left 2
WINDOW 123 0 0 Left 0
WINDOW 39 0 0 Left 0
SYMATTR Value 2
SYMATTR InstName V1
SYMBOL voltage -80 48 R0
SYMATTR InstName h
SYMATTR Value 1
TEXT -168 192 Left 2 !.dc h -2 6 0.01
