Version 4
SHEET 1 880 680
WIRE 160 176 128 176
WIRE 288 176 272 176
WIRE 288 192 288 176
FLAG 128 176 x
IOPIN 128 176 In
FLAG 288 192 0
SYMBOL id 176 176 R0
SYMATTR InstName X1
SYMBOL res 288 160 R90
WINDOW 0 0 56 VBottom 2
WINDOW 3 32 56 VTop 2
SYMATTR InstName R1
SYMATTR Value 1
