Version 4
SHEET 1 880 680
WIRE 160 176 128 176
FLAG 128 176 x
IOPIN 128 176 In
SYMBOL id 176 176 R0
SYMATTR InstName X1
